[board]
type=System
children=cache_hierarchy clk_domain dvfs_handler memory processor workload
auto_unlink_shared_backstore=false
cache_line_size=64
eventq_index=0
exit_on_work_items=true
external_memory_ranges=
init_param=0
m5ops_base=4294901760
mem_mode=timing
mem_ranges=0:1073741824
memories=board.memory.mem_ctrl.dram
mmap_using_noreserve=false
multi_thread=false
num_work_ids=16
readfile=
redirect_paths=
shadow_rom_ranges=
shared_backstore=
symbolfile=
thermal_components=
thermal_model=Null
work_begin_ckpt_count=0
work_begin_cpu_id_exit=-1
work_begin_exit_count=0
work_cpus_ckpt_count=0
work_end_ckpt_count=0
work_end_exit_count=0
work_item_id=-1
workload=board.workload
system_port=board.cache_hierarchy.membus.cpu_side_ports[0]

[board.cache_hierarchy]
type=SubSystem
children=l1d-cache-0 l1i-cache-0 l2-cache-0 l2buses membus
eventq_index=0
thermal_domain=Null

[board.cache_hierarchy.l1d-cache-0]
type=Cache
children=power_state prefetcher replacement_policy tags
addr_ranges=0:18446744073709551615
assoc=8
clk_domain=board.clk_domain
clusivity=mostly_incl
compressor=Null
data_latency=1
demand_mshr_reserve=1
eventq_index=0
is_read_only=false
max_miss_count=0
move_contractions=true
mshrs=16
partitioning_manager=Null
power_model=
power_state=board.cache_hierarchy.l1d-cache-0.power_state
prefetcher=board.cache_hierarchy.l1d-cache-0.prefetcher
replace_expansions=true
replacement_policy=board.cache_hierarchy.l1d-cache-0.replacement_policy
response_latency=1
sequential_access=false
size=32768
system=board
tag_latency=1
tags=board.cache_hierarchy.l1d-cache-0.tags
tgts_per_mshr=20
warmup_percentage=0
write_allocator=Null
write_buffers=8
writeback_clean=false
cpu_side=board.processor.cores.core.dcache_port
mem_side=board.cache_hierarchy.l2buses.cpu_side_ports[1]

[board.cache_hierarchy.l1d-cache-0.power_state]
type=PowerState
clk_gate_bins=20
clk_gate_max=1000000000000
clk_gate_min=1000
default_state=UNDEFINED
eventq_index=0
leaders=
possible_states=

[board.cache_hierarchy.l1d-cache-0.prefetcher]
type=StridePrefetcher
children=power_state table_indexing_policy table_replacement_policy
block_size=64
cache_snoop=false
clk_domain=board.clk_domain
confidence_counter_bits=3
confidence_threshold=50
degree=4
distance=0
eventq_index=0
initial_confidence=4
latency=1
max_prefetch_requests_with_pending_translation=32
on_data=true
on_inst=false
on_miss=false
on_read=true
on_write=true
page_bytes=4096
power_model=
power_state=board.cache_hierarchy.l1d-cache-0.prefetcher.power_state
prefetch_on_access=false
prefetch_on_pf_hit=true
queue_filter=true
queue_size=32
queue_squash=true
sys=board
table_assoc=4
table_entries=64
table_indexing_policy=board.cache_hierarchy.l1d-cache-0.prefetcher.table_indexing_policy
table_replacement_policy=board.cache_hierarchy.l1d-cache-0.prefetcher.table_replacement_policy
tag_prefetch=true
throttle_control_percentage=0
use_cache_line_address=true
use_requestor_id=true
use_virtual_addresses=false

[board.cache_hierarchy.l1d-cache-0.prefetcher.power_state]
type=PowerState
clk_gate_bins=20
clk_gate_max=1000000000000
clk_gate_min=1000
default_state=UNDEFINED
eventq_index=0
leaders=
possible_states=

[board.cache_hierarchy.l1d-cache-0.prefetcher.table_indexing_policy]
type=StridePrefetcherHashedSetAssociative
assoc=4
entry_size=1
eventq_index=0
size=64

[board.cache_hierarchy.l1d-cache-0.prefetcher.table_replacement_policy]
type=RandomRP
eventq_index=0

[board.cache_hierarchy.l1d-cache-0.replacement_policy]
type=LRURP
eventq_index=0

[board.cache_hierarchy.l1d-cache-0.tags]
type=BaseSetAssoc
children=indexing_policy power_state
assoc=8
block_size=64
clk_domain=board.clk_domain
entry_size=64
eventq_index=0
indexing_policy=board.cache_hierarchy.l1d-cache-0.tags.indexing_policy
partitioning_manager=Null
power_model=
power_state=board.cache_hierarchy.l1d-cache-0.tags.power_state
replacement_policy=board.cache_hierarchy.l1d-cache-0.replacement_policy
sequential_access=false
size=32768
system=board
tag_latency=1
warmup_percentage=0

[board.cache_hierarchy.l1d-cache-0.tags.indexing_policy]
type=TaggedSetAssociative
assoc=8
entry_size=64
eventq_index=0
size=32768

[board.cache_hierarchy.l1d-cache-0.tags.power_state]
type=PowerState
clk_gate_bins=20
clk_gate_max=1000000000000
clk_gate_min=1000
default_state=UNDEFINED
eventq_index=0
leaders=
possible_states=

[board.cache_hierarchy.l1i-cache-0]
type=Cache
children=power_state prefetcher replacement_policy tags
addr_ranges=0:18446744073709551615
assoc=8
clk_domain=board.clk_domain
clusivity=mostly_incl
compressor=Null
data_latency=1
demand_mshr_reserve=1
eventq_index=0
is_read_only=false
max_miss_count=0
move_contractions=true
mshrs=16
partitioning_manager=Null
power_model=
power_state=board.cache_hierarchy.l1i-cache-0.power_state
prefetcher=board.cache_hierarchy.l1i-cache-0.prefetcher
replace_expansions=true
replacement_policy=board.cache_hierarchy.l1i-cache-0.replacement_policy
response_latency=1
sequential_access=false
size=32768
system=board
tag_latency=1
tags=board.cache_hierarchy.l1i-cache-0.tags
tgts_per_mshr=20
warmup_percentage=0
write_allocator=Null
write_buffers=8
writeback_clean=true
cpu_side=board.processor.cores.core.icache_port
mem_side=board.cache_hierarchy.l2buses.cpu_side_ports[0]

[board.cache_hierarchy.l1i-cache-0.power_state]
type=PowerState
clk_gate_bins=20
clk_gate_max=1000000000000
clk_gate_min=1000
default_state=UNDEFINED
eventq_index=0
leaders=
possible_states=

[board.cache_hierarchy.l1i-cache-0.prefetcher]
type=StridePrefetcher
children=power_state table_indexing_policy table_replacement_policy
block_size=64
cache_snoop=false
clk_domain=board.clk_domain
confidence_counter_bits=3
confidence_threshold=50
degree=4
distance=0
eventq_index=0
initial_confidence=4
latency=1
max_prefetch_requests_with_pending_translation=32
on_data=true
on_inst=false
on_miss=false
on_read=true
on_write=true
page_bytes=4096
power_model=
power_state=board.cache_hierarchy.l1i-cache-0.prefetcher.power_state
prefetch_on_access=false
prefetch_on_pf_hit=true
queue_filter=true
queue_size=32
queue_squash=true
sys=board
table_assoc=4
table_entries=64
table_indexing_policy=board.cache_hierarchy.l1i-cache-0.prefetcher.table_indexing_policy
table_replacement_policy=board.cache_hierarchy.l1i-cache-0.prefetcher.table_replacement_policy
tag_prefetch=true
throttle_control_percentage=0
use_cache_line_address=true
use_requestor_id=true
use_virtual_addresses=false

[board.cache_hierarchy.l1i-cache-0.prefetcher.power_state]
type=PowerState
clk_gate_bins=20
clk_gate_max=1000000000000
clk_gate_min=1000
default_state=UNDEFINED
eventq_index=0
leaders=
possible_states=

[board.cache_hierarchy.l1i-cache-0.prefetcher.table_indexing_policy]
type=StridePrefetcherHashedSetAssociative
assoc=4
entry_size=1
eventq_index=0
size=64

[board.cache_hierarchy.l1i-cache-0.prefetcher.table_replacement_policy]
type=RandomRP
eventq_index=0

[board.cache_hierarchy.l1i-cache-0.replacement_policy]
type=LRURP
eventq_index=0

[board.cache_hierarchy.l1i-cache-0.tags]
type=BaseSetAssoc
children=indexing_policy power_state
assoc=8
block_size=64
clk_domain=board.clk_domain
entry_size=64
eventq_index=0
indexing_policy=board.cache_hierarchy.l1i-cache-0.tags.indexing_policy
partitioning_manager=Null
power_model=
power_state=board.cache_hierarchy.l1i-cache-0.tags.power_state
replacement_policy=board.cache_hierarchy.l1i-cache-0.replacement_policy
sequential_access=false
size=32768
system=board
tag_latency=1
warmup_percentage=0

[board.cache_hierarchy.l1i-cache-0.tags.indexing_policy]
type=TaggedSetAssociative
assoc=8
entry_size=64
eventq_index=0
size=32768

[board.cache_hierarchy.l1i-cache-0.tags.power_state]
type=PowerState
clk_gate_bins=20
clk_gate_max=1000000000000
clk_gate_min=1000
default_state=UNDEFINED
eventq_index=0
leaders=
possible_states=

[board.cache_hierarchy.l2-cache-0]
type=Cache
children=power_state prefetcher replacement_policy tags
addr_ranges=0:18446744073709551615
assoc=16
clk_domain=board.clk_domain
clusivity=mostly_incl
compressor=Null
data_latency=10
demand_mshr_reserve=1
eventq_index=0
is_read_only=false
max_miss_count=0
move_contractions=true
mshrs=20
partitioning_manager=Null
power_model=
power_state=board.cache_hierarchy.l2-cache-0.power_state
prefetcher=board.cache_hierarchy.l2-cache-0.prefetcher
replace_expansions=true
replacement_policy=board.cache_hierarchy.l2-cache-0.replacement_policy
response_latency=1
sequential_access=false
size=262144
system=board
tag_latency=10
tags=board.cache_hierarchy.l2-cache-0.tags
tgts_per_mshr=12
warmup_percentage=0
write_allocator=Null
write_buffers=8
writeback_clean=false
cpu_side=board.cache_hierarchy.l2buses.mem_side_ports[0]
mem_side=board.cache_hierarchy.membus.cpu_side_ports[1]

[board.cache_hierarchy.l2-cache-0.power_state]
type=PowerState
clk_gate_bins=20
clk_gate_max=1000000000000
clk_gate_min=1000
default_state=UNDEFINED
eventq_index=0
leaders=
possible_states=

[board.cache_hierarchy.l2-cache-0.prefetcher]
type=StridePrefetcher
children=power_state table_indexing_policy table_replacement_policy
block_size=64
cache_snoop=false
clk_domain=board.clk_domain
confidence_counter_bits=3
confidence_threshold=50
degree=4
distance=0
eventq_index=0
initial_confidence=4
latency=1
max_prefetch_requests_with_pending_translation=32
on_data=true
on_inst=false
on_miss=false
on_read=true
on_write=true
page_bytes=4096
power_model=
power_state=board.cache_hierarchy.l2-cache-0.prefetcher.power_state
prefetch_on_access=false
prefetch_on_pf_hit=true
queue_filter=true
queue_size=32
queue_squash=true
sys=board
table_assoc=4
table_entries=64
table_indexing_policy=board.cache_hierarchy.l2-cache-0.prefetcher.table_indexing_policy
table_replacement_policy=board.cache_hierarchy.l2-cache-0.prefetcher.table_replacement_policy
tag_prefetch=true
throttle_control_percentage=0
use_cache_line_address=true
use_requestor_id=true
use_virtual_addresses=false

[board.cache_hierarchy.l2-cache-0.prefetcher.power_state]
type=PowerState
clk_gate_bins=20
clk_gate_max=1000000000000
clk_gate_min=1000
default_state=UNDEFINED
eventq_index=0
leaders=
possible_states=

[board.cache_hierarchy.l2-cache-0.prefetcher.table_indexing_policy]
type=StridePrefetcherHashedSetAssociative
assoc=4
entry_size=1
eventq_index=0
size=64

[board.cache_hierarchy.l2-cache-0.prefetcher.table_replacement_policy]
type=RandomRP
eventq_index=0

[board.cache_hierarchy.l2-cache-0.replacement_policy]
type=LRURP
eventq_index=0

[board.cache_hierarchy.l2-cache-0.tags]
type=BaseSetAssoc
children=indexing_policy power_state
assoc=16
block_size=64
clk_domain=board.clk_domain
entry_size=64
eventq_index=0
indexing_policy=board.cache_hierarchy.l2-cache-0.tags.indexing_policy
partitioning_manager=Null
power_model=
power_state=board.cache_hierarchy.l2-cache-0.tags.power_state
replacement_policy=board.cache_hierarchy.l2-cache-0.replacement_policy
sequential_access=false
size=262144
system=board
tag_latency=10
warmup_percentage=0

[board.cache_hierarchy.l2-cache-0.tags.indexing_policy]
type=TaggedSetAssociative
assoc=16
entry_size=64
eventq_index=0
size=262144

[board.cache_hierarchy.l2-cache-0.tags.power_state]
type=PowerState
clk_gate_bins=20
clk_gate_max=1000000000000
clk_gate_min=1000
default_state=UNDEFINED
eventq_index=0
leaders=
possible_states=

[board.cache_hierarchy.l2buses]
type=CoherentXBar
children=power_state snoop_filter
clk_domain=board.clk_domain
eventq_index=0
forward_latency=0
frontend_latency=1
header_latency=1
max_outstanding_snoops=512
max_routing_table_size=512
point_of_coherency=false
point_of_unification=true
power_model=
power_state=board.cache_hierarchy.l2buses.power_state
response_latency=1
snoop_filter=board.cache_hierarchy.l2buses.snoop_filter
snoop_response_latency=1
system=board
use_default_range=false
width=32
cpu_side_ports=board.cache_hierarchy.l1i-cache-0.mem_side board.cache_hierarchy.l1d-cache-0.mem_side board.processor.cores.core.mmu.itb.walker.port board.processor.cores.core.mmu.dtb.walker.port
mem_side_ports=board.cache_hierarchy.l2-cache-0.cpu_side

[board.cache_hierarchy.l2buses.power_state]
type=PowerState
clk_gate_bins=20
clk_gate_max=1000000000000
clk_gate_min=1000
default_state=UNDEFINED
eventq_index=0
leaders=
possible_states=

[board.cache_hierarchy.l2buses.snoop_filter]
type=SnoopFilter
eventq_index=0
lookup_latency=0
max_capacity=8388608
system=board

[board.cache_hierarchy.membus]
type=CoherentXBar
children=badaddr_responder power_state snoop_filter
clk_domain=board.clk_domain
eventq_index=0
forward_latency=4
frontend_latency=3
header_latency=1
max_outstanding_snoops=512
max_routing_table_size=512
point_of_coherency=true
point_of_unification=true
power_model=
power_state=board.cache_hierarchy.membus.power_state
response_latency=2
snoop_filter=board.cache_hierarchy.membus.snoop_filter
snoop_response_latency=4
system=board
use_default_range=false
width=64
cpu_side_ports=board.system_port board.cache_hierarchy.l2-cache-0.mem_side
default=board.cache_hierarchy.membus.badaddr_responder.pio
mem_side_ports=board.memory.mem_ctrl.port

[board.cache_hierarchy.membus.badaddr_responder]
type=IsaFake
children=power_state
clk_domain=board.clk_domain
eventq_index=0
fake_mem=false
pio_addr=0
pio_latency=100000
pio_size=8
power_model=
power_state=board.cache_hierarchy.membus.badaddr_responder.power_state
ret_bad_addr=true
ret_data16=65535
ret_data32=4294967295
ret_data64=18446744073709551615
ret_data8=255
system=board
update_data=false
warn_access=
pio=board.cache_hierarchy.membus.default

[board.cache_hierarchy.membus.badaddr_responder.power_state]
type=PowerState
clk_gate_bins=20
clk_gate_max=1000000000000
clk_gate_min=1000
default_state=UNDEFINED
eventq_index=0
leaders=
possible_states=

[board.cache_hierarchy.membus.power_state]
type=PowerState
clk_gate_bins=20
clk_gate_max=1000000000000
clk_gate_min=1000
default_state=UNDEFINED
eventq_index=0
leaders=
possible_states=

[board.cache_hierarchy.membus.snoop_filter]
type=SnoopFilter
eventq_index=0
lookup_latency=1
max_capacity=8388608
system=board

[board.clk_domain]
type=SrcClockDomain
children=voltage_domain
clock=1000
domain_id=-1
eventq_index=0
init_perf_level=0
voltage_domain=board.clk_domain.voltage_domain

[board.clk_domain.voltage_domain]
type=VoltageDomain
eventq_index=0
voltage=1.0

[board.dvfs_handler]
type=DVFSHandler
domains=
enable=false
eventq_index=0
sys_clk_domain=board.clk_domain
transition_latency=100000000

[board.memory]
type=SubSystem
children=mem_ctrl
eventq_index=0
thermal_domain=Null

[board.memory.mem_ctrl]
type=MemCtrl
children=dram power_state
clk_domain=board.clk_domain
command_window=10000
disable_sanity_check=false
dram=board.memory.mem_ctrl.dram
eventq_index=0
mem_sched_policy=frfcfs
min_reads_per_switch=16
min_writes_per_switch=16
power_model=
power_state=board.memory.mem_ctrl.power_state
qos_policy=Null
qos_priorities=1
qos_priority_escalation=false
qos_q_policy=fifo
qos_requestors=               
qos_syncro_scheduler=false
qos_turnaround_policy=Null
static_backend_latency=10000
static_frontend_latency=10000
system=board
write_high_thresh_perc=85
write_low_thresh_perc=50
port=board.cache_hierarchy.membus.mem_side_ports[0]

[board.memory.mem_ctrl.dram]
type=DRAMInterface
children=power_state
IDD0=0.055
IDD02=0.0
IDD2N=0.032
IDD2N2=0.0
IDD2P0=0.0
IDD2P02=0.0
IDD2P1=0.032
IDD2P12=0.0
IDD3N=0.038
IDD3N2=0.0
IDD3P0=0.0
IDD3P02=0.0
IDD3P1=0.038
IDD3P12=0.0
IDD4R=0.157
IDD4R2=0.0
IDD4W=0.125
IDD4W2=0.0
IDD5=0.23500000000000001
IDD52=0.0
IDD6=0.02
IDD62=0.0
VDD=1.5
VDD2=0.0
activation_limit=4
addr_mapping=RoRaBaCoCh
bank_groups_per_rank=0
banks_per_rank=8
beats_per_clock=2
burst_length=8
clk_domain=board.clk_domain
collect_stats=true
conf_table_reported=true
data_clock_sync=false
device_bus_width=8
device_rowbuffer_size=1024
device_size=536870912
devices_per_rank=8
dll=true
enable_dram_powerdown=false
eventq_index=0
image_file=
in_addr_map=true
kvm_map=true
max_accesses_per_row=16
null=false
page_policy=open_adaptive
power_model=
power_state=board.memory.mem_ctrl.dram.power_state
range=0:1073741824
ranks_per_channel=2
read_buffer_size=32
tAAD=1250
tBURST=5000
tBURST_MAX=5000
tBURST_MIN=5000
tCCD_L=0
tCCD_L_WR=0
tCK=1250
tCL=13750
tCS=2500
tCWL=13750
tPPD=0
tRAS=35000
tRCD=13750
tRCD_WR=13750
tREFI=7800000
tRFC=260000
tRP=13750
tRRD=6000
tRRD_L=0
tRTP=7500
tRTW=2500
tWR=15000
tWTR=7500
tWTR_L=7500
tXAW=30000
tXP=6000
tXPDLL=0
tXS=270000
tXSDLL=0
two_cycle_activate=false
write_buffer_size=64
writeable=true

[board.memory.mem_ctrl.dram.power_state]
type=PowerState
clk_gate_bins=20
clk_gate_max=1000000000000
clk_gate_min=1000
default_state=UNDEFINED
eventq_index=0
leaders=
possible_states=

[board.memory.mem_ctrl.power_state]
type=PowerState
clk_gate_bins=20
clk_gate_max=1000000000000
clk_gate_min=1000
default_state=UNDEFINED
eventq_index=0
leaders=
possible_states=

[board.processor]
type=SubSystem
children=cores
eventq_index=0
thermal_domain=Null

[board.processor.cores]
type=SubSystem
children=core
eventq_index=0
thermal_domain=Null

[board.processor.cores.core]
type=BaseO3CPU
children=SSITIndexingPolicy SSITReplPolicy branchPred decoder instQueues interrupts isa mmu power_state tracer workload
LFSTSize=1024
LQEntries=32
LSQCheckLoads=true
LSQDepCheckShift=4
SQEntries=32
SSITAssoc=1
SSITIndexingPolicy=board.processor.cores.core.SSITIndexingPolicy
SSITReplPolicy=board.processor.cores.core.SSITReplPolicy
SSITSize=1024
activity=0
bacToFetchDelay=1
backComSize=5
branchPred=board.processor.cores.core.branchPred
cacheLoadPorts=200
cacheStorePorts=200
checker=Null
clk_domain=board.clk_domain
commitToDecodeDelay=1
commitToFetchDelay=1
commitToIEWDelay=1
commitToRenameDelay=1
commitWidth=8
cpu_id=0
decodeToFetchDelay=1
decodeToRenameDelay=1
decodeWidth=8
decoder=board.processor.cores.core.decoder
decoupledFrontEnd=false
dispatchWidth=8
do_checkpoint_insts=true
do_statistics_insts=true
eventq_index=0
fetchBufferSize=64
fetchQueueSize=32
fetchTargetWidth=32
fetchToBacDelay=1
fetchToDecodeDelay=1
fetchTrapLatency=1
fetchWidth=8
forwardComSize=5
function_trace=false
function_trace_start=0
iewToCommitDelay=1
iewToDecodeDelay=1
iewToFetchDelay=1
iewToRenameDelay=1
instQueues=board.processor.cores.core.instQueues
interrupts=board.processor.cores.core.interrupts
isa=board.processor.cores.core.isa
issueToExecuteDelay=1
issueWidth=8
maxFTPerCycle=4
maxTakenPredPerCycle=1
max_insts_all_threads=0
max_insts_any_thread=0
minInstSize=1
mmu=board.processor.cores.core.mmu
needsTSO=false
numFTQEntries=8
numPhysCCRegs=0
numPhysFloatRegs=256
numPhysIntRegs=256
numPhysMatRegs=2
numPhysVecPredRegs=32
numPhysVecRegs=256
numROBEntries=192
numRobs=1
numThreads=1
power_gating_on_idle=false
power_model=
power_state=board.processor.cores.core.power_state
progress_interval=0
pwr_gating_latency=300
recvRespBufferSize=64
recvRespMaxCachelines=1
recvRespThrottling=false
renameToDecodeDelay=1
renameToFetchDelay=1
renameToIEWDelay=2
renameToROBDelay=1
renameWidth=8
simpoint_start_insts=
smtCommitPolicy=RoundRobin
smtFetchPolicy=RoundRobin
smtLSQPolicy=Partitioned
smtLSQThreshold=100
smtNumFetchingThreads=1
smtROBPolicy=Partitioned
smtROBThreshold=100
socket_id=0
squashWidth=NullOpt
store_set_clear_period=250000
switched_out=false
syscallRetryLatency=10000
system=board
tracer=board.processor.cores.core.tracer
trapLatency=13
wbWidth=8
workload=board.processor.cores.core.workload
dcache_port=board.cache_hierarchy.l1d-cache-0.cpu_side
icache_port=board.cache_hierarchy.l1i-cache-0.cpu_side

[board.processor.cores.core.SSITIndexingPolicy]
type=SetAssociative
assoc=1
entry_size=4
eventq_index=0
size=4096

[board.processor.cores.core.SSITReplPolicy]
type=LRURP
eventq_index=0

[board.processor.cores.core.branchPred]
type=BranchPredictor
children=btb conditionalBranchPred indirectBranchPred ras
btb=board.processor.cores.core.branchPred.btb
conditionalBranchPred=board.processor.cores.core.branchPred.conditionalBranchPred
eventq_index=0
indirectBranchPred=board.processor.cores.core.branchPred.indirectBranchPred
instShiftAmt=0
numThreads=1
ras=board.processor.cores.core.branchPred.ras
requiresBTBHit=false
speculativeHistUpdate=true
takenOnlyHistory=false
updateBTBAtSquash=true

[board.processor.cores.core.branchPred.btb]
type=SimpleBTB
children=btbIndexingPolicy btbReplPolicy power_state
associativity=1
btbIndexingPolicy=board.processor.cores.core.branchPred.btb.btbIndexingPolicy
btbReplPolicy=board.processor.cores.core.branchPred.btb.btbReplPolicy
clk_domain=board.clk_domain
eventq_index=0
instShiftAmt=0
numEntries=4096
numThreads=1
power_model=
power_state=board.processor.cores.core.branchPred.btb.power_state
tagBits=16

[board.processor.cores.core.branchPred.btb.btbIndexingPolicy]
type=BTBSetAssociative
assoc=1
eventq_index=0
numThreads=1
num_entries=4096
set_shift=0
tag_bits=16

[board.processor.cores.core.branchPred.btb.btbReplPolicy]
type=LRURP
eventq_index=0

[board.processor.cores.core.branchPred.btb.power_state]
type=PowerState
clk_gate_bins=20
clk_gate_max=1000000000000
clk_gate_min=1000
default_state=UNDEFINED
eventq_index=0
leaders=
possible_states=

[board.processor.cores.core.branchPred.conditionalBranchPred]
type=LocalBP
eventq_index=0
instShiftAmt=0
localCtrBits=2
localPredictorSize=2048
numThreads=1
speculativeHistUpdate=true

[board.processor.cores.core.branchPred.indirectBranchPred]
type=SimpleIndirectPredictor
eventq_index=0
indirectGHRBits=13
indirectHashGHR=true
indirectHashTargets=true
indirectPathLength=3
indirectSets=256
indirectTagSize=16
indirectWays=2
instShiftAmt=0
numThreads=1
speculativePathLength=256

[board.processor.cores.core.branchPred.ras]
type=ReturnAddrStack
eventq_index=0
numEntries=16
numThreads=1

[board.processor.cores.core.decoder]
type=RiscvDecoder
eventq_index=0
isa=board.processor.cores.core.isa

[board.processor.cores.core.instQueues]
type=IQUnit
children=fuPool
eventq_index=0
fuPool=board.processor.cores.core.instQueues.fuPool
numEntries=64
numThreads=1
smtIQPolicy=Partitioned
smtIQThreshold=100

[board.processor.cores.core.instQueues.fuPool]
type=FUPool
children=FUList00 FUList01 FUList02 FUList03 FUList04 FUList05 FUList06 FUList07 FUList08 FUList09 FUList10
FUList=board.processor.cores.core.instQueues.fuPool.FUList00 board.processor.cores.core.instQueues.fuPool.FUList01 board.processor.cores.core.instQueues.fuPool.FUList02 board.processor.cores.core.instQueues.fuPool.FUList03 board.processor.cores.core.instQueues.fuPool.FUList04 board.processor.cores.core.instQueues.fuPool.FUList05 board.processor.cores.core.instQueues.fuPool.FUList06 board.processor.cores.core.instQueues.fuPool.FUList07 board.processor.cores.core.instQueues.fuPool.FUList08 board.processor.cores.core.instQueues.fuPool.FUList09 board.processor.cores.core.instQueues.fuPool.FUList10
eventq_index=0

[board.processor.cores.core.instQueues.fuPool.FUList00]
type=FUDesc
children=opList
count=6
eventq_index=0
opList=board.processor.cores.core.instQueues.fuPool.FUList00.opList

[board.processor.cores.core.instQueues.fuPool.FUList00.opList]
type=OpDesc
eventq_index=0
opClass=IntAlu
opLat=1
pipelined=true

[board.processor.cores.core.instQueues.fuPool.FUList01]
type=FUDesc
children=opList0 opList1
count=2
eventq_index=0
opList=board.processor.cores.core.instQueues.fuPool.FUList01.opList0 board.processor.cores.core.instQueues.fuPool.FUList01.opList1

[board.processor.cores.core.instQueues.fuPool.FUList01.opList0]
type=OpDesc
eventq_index=0
opClass=IntMult
opLat=3
pipelined=true

[board.processor.cores.core.instQueues.fuPool.FUList01.opList1]
type=OpDesc
eventq_index=0
opClass=IntDiv
opLat=20
pipelined=false

[board.processor.cores.core.instQueues.fuPool.FUList02]
type=FUDesc
children=opList0 opList1 opList2 opList3
count=4
eventq_index=0
opList=board.processor.cores.core.instQueues.fuPool.FUList02.opList0 board.processor.cores.core.instQueues.fuPool.FUList02.opList1 board.processor.cores.core.instQueues.fuPool.FUList02.opList2 board.processor.cores.core.instQueues.fuPool.FUList02.opList3

[board.processor.cores.core.instQueues.fuPool.FUList02.opList0]
type=OpDesc
eventq_index=0
opClass=FloatAdd
opLat=2
pipelined=true

[board.processor.cores.core.instQueues.fuPool.FUList02.opList1]
type=OpDesc
eventq_index=0
opClass=FloatCmp
opLat=2
pipelined=true

[board.processor.cores.core.instQueues.fuPool.FUList02.opList2]
type=OpDesc
eventq_index=0
opClass=FloatCvt
opLat=2
pipelined=true

[board.processor.cores.core.instQueues.fuPool.FUList02.opList3]
type=OpDesc
eventq_index=0
opClass=Bf16Cvt
opLat=2
pipelined=true

[board.processor.cores.core.instQueues.fuPool.FUList03]
type=FUDesc
children=opList0 opList1 opList2 opList3 opList4
count=2
eventq_index=0
opList=board.processor.cores.core.instQueues.fuPool.FUList03.opList0 board.processor.cores.core.instQueues.fuPool.FUList03.opList1 board.processor.cores.core.instQueues.fuPool.FUList03.opList2 board.processor.cores.core.instQueues.fuPool.FUList03.opList3 board.processor.cores.core.instQueues.fuPool.FUList03.opList4

[board.processor.cores.core.instQueues.fuPool.FUList03.opList0]
type=OpDesc
eventq_index=0
opClass=FloatMult
opLat=4
pipelined=true

[board.processor.cores.core.instQueues.fuPool.FUList03.opList1]
type=OpDesc
eventq_index=0
opClass=FloatMultAcc
opLat=5
pipelined=true

[board.processor.cores.core.instQueues.fuPool.FUList03.opList2]
type=OpDesc
eventq_index=0
opClass=FloatMisc
opLat=3
pipelined=true

[board.processor.cores.core.instQueues.fuPool.FUList03.opList3]
type=OpDesc
eventq_index=0
opClass=FloatDiv
opLat=12
pipelined=false

[board.processor.cores.core.instQueues.fuPool.FUList03.opList4]
type=OpDesc
eventq_index=0
opClass=FloatSqrt
opLat=24
pipelined=false

[board.processor.cores.core.instQueues.fuPool.FUList04]
type=FUDesc
children=opList00 opList01 opList02 opList03 opList04 opList05 opList06 opList07 opList08 opList09 opList10
count=0
eventq_index=0
opList=board.processor.cores.core.instQueues.fuPool.FUList04.opList00 board.processor.cores.core.instQueues.fuPool.FUList04.opList01 board.processor.cores.core.instQueues.fuPool.FUList04.opList02 board.processor.cores.core.instQueues.fuPool.FUList04.opList03 board.processor.cores.core.instQueues.fuPool.FUList04.opList04 board.processor.cores.core.instQueues.fuPool.FUList04.opList05 board.processor.cores.core.instQueues.fuPool.FUList04.opList06 board.processor.cores.core.instQueues.fuPool.FUList04.opList07 board.processor.cores.core.instQueues.fuPool.FUList04.opList08 board.processor.cores.core.instQueues.fuPool.FUList04.opList09 board.processor.cores.core.instQueues.fuPool.FUList04.opList10

[board.processor.cores.core.instQueues.fuPool.FUList04.opList00]
type=OpDesc
eventq_index=0
opClass=MemRead
opLat=1
pipelined=true

[board.processor.cores.core.instQueues.fuPool.FUList04.opList01]
type=OpDesc
eventq_index=0
opClass=FloatMemRead
opLat=1
pipelined=true

[board.processor.cores.core.instQueues.fuPool.FUList04.opList02]
type=OpDesc
eventq_index=0
opClass=SimdUnitStrideLoad
opLat=1
pipelined=true

[board.processor.cores.core.instQueues.fuPool.FUList04.opList03]
type=OpDesc
eventq_index=0
opClass=SimdUnitStrideMaskLoad
opLat=1
pipelined=true

[board.processor.cores.core.instQueues.fuPool.FUList04.opList04]
type=OpDesc
eventq_index=0
opClass=SimdUnitStrideSegmentedLoad
opLat=1
pipelined=true

[board.processor.cores.core.instQueues.fuPool.FUList04.opList05]
type=OpDesc
eventq_index=0
opClass=SimdStridedLoad
opLat=1
pipelined=true

[board.processor.cores.core.instQueues.fuPool.FUList04.opList06]
type=OpDesc
eventq_index=0
opClass=SimdIndexedLoad
opLat=1
pipelined=true

[board.processor.cores.core.instQueues.fuPool.FUList04.opList07]
type=OpDesc
eventq_index=0
opClass=SimdUnitStrideFaultOnlyFirstLoad
opLat=1
pipelined=true

[board.processor.cores.core.instQueues.fuPool.FUList04.opList08]
type=OpDesc
eventq_index=0
opClass=SimdUnitStrideSegmentedFaultOnlyFirstLoad
opLat=1
pipelined=true

[board.processor.cores.core.instQueues.fuPool.FUList04.opList09]
type=OpDesc
eventq_index=0
opClass=SimdWholeRegisterLoad
opLat=1
pipelined=true

[board.processor.cores.core.instQueues.fuPool.FUList04.opList10]
type=OpDesc
eventq_index=0
opClass=SimdStrideSegmentedLoad
opLat=1
pipelined=true

[board.processor.cores.core.instQueues.fuPool.FUList05]
type=FUDesc
children=opList00 opList01 opList02 opList03 opList04 opList05 opList06 opList07 opList08 opList09 opList10 opList11 opList12 opList13 opList14 opList15 opList16 opList17 opList18 opList19 opList20 opList21 opList22 opList23 opList24 opList25 opList26 opList27 opList28 opList29 opList30 opList31 opList32 opList33 opList34 opList35 opList36 opList37 opList38 opList39 opList40 opList41 opList42 opList43 opList44 opList45 opList46 opList47 opList48 opList49
count=4
eventq_index=0